/*--------------------------------*- C++ -*----------------------------------*\
  =========                 |
  \\      /  F ield         | OpenFOAM: The Open Source CFD Toolbox
   \\    /   O peration     | Website:  https://openfoam.org
    \\  /    A nd           | Version:  10
     \\/     M anipulation  |
\*---------------------------------------------------------------------------*/
FoamFile
{
    format      ascii;
    class       volScalarField;
    location    "0";
    object      k;
}
// * * * * * * * * * * * * * * * * * * * * * * * * * * * * * * * * * * * * * //

dimensions      [0 2 -2 0 0 0 0];

internalField   uniform 0.00375;

boundaryField
{
    floor
    {
        type            kqRWallFunction;
        value           uniform 0;
    }
    wall
    {
        type            kqRWallFunction;
        value           $internalField;
    }
    inlet
    {
        type            turbulentIntensityKineticEnergyInlet;
        intensity       0.05;
        value           $internalField;
    }
    outlet
    {
        type            inletOutlet;
        inletValue      $internalField;
        value           $internalField;
    }
    bulid
    {
        type            kqRWallFunction;
        value           $internalField;
    }
    source
    {
        type            turbulentIntensityKineticEnergyInlet;
        intensity       0.05;
        value           $internalField;
    }
}


// ************************************************************************* //
/*boundaryField
{
    inlet
    {
        type            turbulentIntensityKineticEnergyInlet;
        intensity       0.01;
        value           $internalField;
    }

    outlet
    {
        type            inletOutlet;
        inletValue      $internalField;
        value           $internalField;
    }

    topAndBottom
    {
        type            zeroGradient;
    }

    wall
    {
        type            kqRWallFunction;
        value           $internalField;
    }
    	
    }
*/
